simulator lang=spectre
global 0
ahdl_include "../solution/connectrules_electrical_map.vams"

Va (a 0) vsource type=pwl wave=[0n 0 10n 0.25 25n 0.65 55n 0.35]
Xdut (a y) connectrules_electrical_map_bridge

tran tran stop=80n
save a y
