simulator lang=spectre
global 0

ahdl_include "sar_5bit_serial_decoder.va"

Vclk (clks 0) vsource type=pwl wave=[0 0 1n 0 1.1n 0.9 1.5n 0.9 1.6n 0 18n 0 18.1n 0.9 18.5n 0.9 18.6n 0 36n 0 36.1n 0.9 36.5n 0.9 36.6n 0 42n 0]
Vready (ready 0) vsource type=pwl wave=[0 0 5n 0 5.1n 0.9 5.5n 0.9 5.6n 0 7n 0 7.1n 0.9 7.5n 0.9 7.6n 0 9n 0 9.1n 0.9 9.5n 0.9 9.6n 0 11n 0 11.1n 0.9 11.5n 0.9 11.6n 0 13n 0 13.1n 0.9 13.5n 0.9 13.6n 0 23n 0 23.1n 0.9 23.5n 0.9 23.6n 0 25n 0 25.1n 0.9 25.5n 0.9 25.6n 0 27n 0 27.1n 0.9 27.5n 0.9 27.6n 0 29n 0 29.1n 0.9 29.5n 0.9 29.6n 0 31n 0 31.1n 0.9 31.5n 0.9 31.6n 0 42n 0]
Vdin (din 0) vsource type=pwl wave=[0 0 4n 0.9 6n 0.9 6.1n 0 8n 0 8.1n 0.9 12n 0.9 12.1n 0 24n 0 24.1n 0.9 26n 0.9 26.1n 0 30n 0 30.1n 0.9 42n 0.9]

XDUT (din clks ready dout) sar_5bit_serial_decoder

tran tran stop=40n maxstep=20p
save din clks ready dout
