simulator lang=spectre
global 0

ahdl_include "final_step_max_observer_file.va"

Vvin (vin 0) vsource type=pwl wave=[ 0n 0.90 8n 0.90 8.1n 0.20 29n 0.20 30n 0.65 49n 0.65 50n 0.40 70n 0.40 ]
Vmode (mode 0) vsource type=pwl wave=[ 0n 0.0 70n 0.0 ]
Vrst (rst 0) vsource type=pwl wave=[ 0n 0.9 8n 0.9 8.1n 0 70n 0 ]
Vclk (clk 0) vsource type=pwl wave=[ 0n 0 4.9n 0 5.0n 0.9 5.5n 0.9 5.6n 0 19.9n 0 20.0n 0.9 20.5n 0.9 20.6n 0 39.9n 0 40.0n 0.9 40.5n 0.9 40.6n 0 59.9n 0 60.0n 0.9 60.5n 0.9 60.6n 0 70n 0 ]

XDUT (vin clk mode rst out metric) final_step_max_observer_file

tran tran stop=70n
save vin clk mode rst out metric
