simulator lang=spectre
global 0

ahdl_include "cmp_offset_ref.va"

Vvdd (VDD 0) vsource dc=0.9
Vvss (VSS 0) vsource dc=0
Vclk (CLK 0) vsource type=pulse val0=0 val1=0.9 delay=1n rise=20p fall=20p width=1n period=4n

Vinp (VINP 0) vsource type=pwl wave=[ \
    0      0.438 \
    4.1n   0.438 \
    4.3n   0.449 \
    8.1n   0.449 \
    8.3n   0.454 \
    12.2n  0.454 \
    12.4n  0.458 \
    16.1n  0.458 \
    16.3n  0.466 \
    20.2n  0.466 \
    20.4n  0.449 \
    24.2n  0.449 \
    24.4n  0.437 \
    28.0n  0.437 \
]
Vinn (VINN 0) vsource dc=0.450

XDUT (VDD VSS CLK VINP VINN OUT_P) cmp_offset_ref

tran tran stop=28n maxstep=20p
save CLK VINP VINN OUT_P
