simulator lang=spectre
global 0

ahdl_include "pipeline_stage.va"

Vvdd  (vdd  0) vsource dc=0.9
Vvss  (vss  0) vsource dc=0.0
Vvref (vref 0) vsource dc=0.9
Vphi1 (phi1 0) vsource type=pulse val0=0 val1=0.9 period=30n width=10n rise=200p fall=200p delay=3n
Vphi2 (phi2 0) vsource type=pulse val0=0 val1=0.9 period=30n width=10n rise=200p fall=200p delay=15n
Vvin  (vin  0) vsource type=pwl wave=[0 0.45 29.5n 0.45 30n 0.72 59.5n 0.72 60n 0.18 89.5n 0.18 90n 0.45 120n 0.45]

XDUT (vdd vss phi1 phi2 vin vref vres d1 d0) pipeline_stage vth=0.45 vdd=0.9 tedge=200p

tran tran stop=120n maxstep=500p
save phi1 phi2 vin vres d1 d0
