simulator lang=spectre
global 0
ahdl_include "../solution/connectmodule_electrical_bridge.vams"

Va (a 0) vsource type=pwl wave=[0n 0 12n 0.3 35n 0.75 65n 0.45]
Xdut (a y) connectmodule_electrical_bridge gain=1.0

tran tran stop=80n
save a y
