simulator lang=spectre
global 0

ahdl_include "oomr_string_voltage_probe.va"

Vin (vin 0) vsource type=pwl wave=[0 0.00 20n 0.00 21n 0.20 60n 0.20 61n 0.50 100n 0.50]

XDUT (out) oomr_string_voltage_probe

tran tran stop=100n
save vin out
