simulator lang=spectre
global 0

ahdl_include "event_nested_or_expression.va"

Va (a 0) vsource type=pwl wave=[0 0.0 24n 0.0 25n 0.9 160n 0.9]
Vb (b 0) vsource type=pwl wave=[0 0.0 64n 0.0 65n 0.9 160n 0.9]

XDUT (a b out) event_nested_or_expression

tran tran stop=160n
save a b out
