simulator lang=spectre
global 0

ahdl_include "decimal_to_bcd.va"

Vd9 (d9 0) vsource type=pwl wave=[ 0n 0 9n 0 10n 0 19n 0 20n 0 29n 0 30n 0 39n 0 ]
Vd8 (d8 0) vsource type=pwl wave=[ 0n 0 9n 0 10n 0 19n 0 20n 0 29n 0 30n 0 39n 0 ]
Vd7 (d7 0) vsource type=pwl wave=[ 0n 0 9n 0 10n 0 19n 0 20n 0 29n 0 30n 0 39n 0 ]
Vd6 (d6 0) vsource type=pwl wave=[ 0n 0 9n 0 10n 0 19n 0 20n 0 29n 0 30n 0 39n 0 ]
Vd5 (d5 0) vsource type=pwl wave=[ 0n 0 9n 0 10n 0 19n 0 20n 0 29n 0 30n 0 39n 0 ]
Vd4 (d4 0) vsource type=pwl wave=[ 0n 0 9n 0 10n 0 19n 0 20n 0 29n 0 30n 0 39n 0 ]
Vd3 (d3 0) vsource type=pwl wave=[ 0n 0 9n 0 10n 0 19n 0 20n 0 29n 0 30n 0.9 39n 0.9 ]
Vd2 (d2 0) vsource type=pwl wave=[ 0n 0 9n 0 10n 0 19n 0 20n 0.9 29n 0.9 30n 0 39n 0 ]
Vd1 (d1 0) vsource type=pwl wave=[ 0n 0 9n 0 10n 0.9 19n 0.9 20n 0 29n 0 30n 0 39n 0 ]
Vd0 (d0 0) vsource type=pwl wave=[ 0n 0.9 9n 0.9 10n 0 19n 0 20n 0 29n 0 30n 0 39n 0 ]

XDUT (d9 d8 d7 d6 d5 d4 d3 d2 d1 d0 b3 b2 b1 b0 valid) decimal_to_bcd

tran tran stop=40n maxstep=500p
save d9 d8 d7 d6 d5 d4 d3 d2 d1 d0 b3 b2 b1 b0 valid
