simulator lang=spectre
global 0

ahdl_include "macro_functionlike_clamp.va"

Vvin (vin 0) vsource type=pwl wave=[0 -0.2 100n -0.2 101n 0.35 200n 0.35 201n 1.2 300n 1.2 301n 0.7 400n 0.7 401n 0.0 520n 0.0]
Vclk (clk 0) vsource type=pwl wave=[0 0.0 49n 0.0 50n 1.0 79n 1.0 80n 0.0 149n 0.0 150n 1.0 179n 1.0 180n 0.0 249n 0.0 250n 1.0 279n 1.0 280n 0.0 349n 0.0 350n 1.0 379n 1.0 380n 0.0 449n 0.0 450n 1.0 520n 1.0]
Vmode (mode 0) vsource dc=0.0
Vrst (rst 0) vsource dc=0.0

XDUT (vin clk mode rst out metric) macro_functionlike_clamp

tran tran stop=520n
save vin clk mode rst out metric
