simulator lang=spectre
global 0

ahdl_include "onehot_to_bin_16b.va"

Voh15 (oh15 0) vsource type=pwl wave=[ 0n 0 9n 0 10n 0 19n 0 20n 0 29n 0 30n 0 39n 0 ]
Voh14 (oh14 0) vsource type=pwl wave=[ 0n 0 9n 0 10n 0 19n 0 20n 0 29n 0 30n 0 39n 0 ]
Voh13 (oh13 0) vsource type=pwl wave=[ 0n 0 9n 0 10n 0 19n 0 20n 0 29n 0 30n 0 39n 0 ]
Voh12 (oh12 0) vsource type=pwl wave=[ 0n 0 9n 0 10n 0 19n 0 20n 0 29n 0 30n 0 39n 0 ]
Voh11 (oh11 0) vsource type=pwl wave=[ 0n 0 9n 0 10n 0 19n 0 20n 0 29n 0 30n 0 39n 0 ]
Voh10 (oh10 0) vsource type=pwl wave=[ 0n 0 9n 0 10n 0 19n 0 20n 0 29n 0 30n 0 39n 0 ]
Voh9 (oh9 0) vsource type=pwl wave=[ 0n 0 9n 0 10n 0 19n 0 20n 0 29n 0 30n 0 39n 0 ]
Voh8 (oh8 0) vsource type=pwl wave=[ 0n 0 9n 0 10n 0 19n 0 20n 0 29n 0 30n 0 39n 0 ]
Voh7 (oh7 0) vsource type=pwl wave=[ 0n 0 9n 0 10n 0 19n 0 20n 0 29n 0 30n 0 39n 0 ]
Voh6 (oh6 0) vsource type=pwl wave=[ 0n 0 9n 0 10n 0 19n 0 20n 0 29n 0 30n 0 39n 0 ]
Voh5 (oh5 0) vsource type=pwl wave=[ 0n 0 9n 0 10n 0 19n 0 20n 0 29n 0 30n 0 39n 0 ]
Voh4 (oh4 0) vsource type=pwl wave=[ 0n 0 9n 0 10n 0 19n 0 20n 0 29n 0 30n 0 39n 0 ]
Voh3 (oh3 0) vsource type=pwl wave=[ 0n 0 9n 0 10n 0 19n 0 20n 0 29n 0 30n 0.9 39n 0.9 ]
Voh2 (oh2 0) vsource type=pwl wave=[ 0n 0 9n 0 10n 0 19n 0 20n 0.9 29n 0.9 30n 0 39n 0 ]
Voh1 (oh1 0) vsource type=pwl wave=[ 0n 0 9n 0 10n 0.9 19n 0.9 20n 0 29n 0 30n 0 39n 0 ]
Voh0 (oh0 0) vsource type=pwl wave=[ 0n 0.9 9n 0.9 10n 0 19n 0 20n 0 29n 0 30n 0 39n 0 ]

XDUT (oh15 oh14 oh13 oh12 oh11 oh10 oh9 oh8 oh7 oh6 oh5 oh4 oh3 oh2 oh1 oh0 b3 b2 b1 b0 valid) onehot_to_bin_16b

tran tran stop=40n maxstep=500p
save oh15 oh14 oh13 oh12 oh11 oh10 oh9 oh8 oh7 oh6 oh5 oh4 oh3 oh2 oh1 oh0 b3 b2 b1 b0 valid
