simulator lang=spectre
global 0
ahdl_include "flash_folded_dac4.va"
Vd4 (vd4 0) vsource type=pwl wave=[0 0 0.7n 0 0.75n 0.9 1.4n 0.9 1.45n 0 2.1n 0 2.15n 0.9 2.8n 0.9]
Vd3 (vd3 0) vsource type=pwl wave=[0 0.9 0.7n 0.9 0.75n 0 1.4n 0 1.45n 0.9 2.1n 0.9 2.15n 0.9 2.8n 0.9]
Vd2 (vd2 0) vsource type=pwl wave=[0 0.9 0.7n 0.9 0.75n 0.9 1.4n 0.9 1.45n 0 2.1n 0 2.15n 0.9 2.8n 0.9]
Vd1 (vd1 0) vsource type=pwl wave=[0 0 0.7n 0 0.75n 0.9 1.4n 0.9 1.45n 0.9 2.1n 0.9 2.15n 0 2.8n 0]
XDUT (vd4 vd3 vd2 vd1 vout) flash_folded_dac4
tran tran stop=2.6n maxstep=5p
save vd4 vd3 vd2 vd1 vout
