simulator lang=spectre
global 0
ahdl_include "sum5_signed_sar_weight.va"
Vd1 (d1 0) vsource type=pwl wave=[0 1.1 0.80n 1.1 0.85n 0 2.40n 0 2.45n 1.1 4.20n 1.1]
Vd2 (d2 0) vsource type=pwl wave=[0 0 1.60n 0 1.65n 1.1 3.20n 1.1 3.25n 0 4.20n 0]
Vd3 (d3 0) vsource type=pwl wave=[0 1.1 1.60n 1.1 1.65n 0 3.20n 0 3.25n 1.1 4.20n 1.1]
Vd4 (d4 0) vsource type=pwl wave=[0 0 0.80n 0 0.85n 1.1 2.40n 1.1 2.45n 0 4.20n 0]
Vd5 (d5 0) vsource type=pwl wave=[0 0 0.80n 0 0.85n 1.1 1.60n 1.1 1.65n 0 2.40n 0 2.45n 1.1 4.20n 1.1]
XDUT (d1 d2 d3 d4 d5 out) sum5_signed_sar_weight
tran tran stop=4.0n maxstep=5p
save d1 d2 d3 d4 d5 out
