simulator lang=spectre
global 0

ahdl_include "for_loop_windowed_peak.va"

Vvin (vin 0) vsource type=pwl wave=[ 0n 0.3 9n 0.3 10n 0.7 19n 0.7 20n 0.2 35n 0.2 ]
Vmode (mode 0) vsource type=pwl wave=[ 0n 0 35n 0 ]
Vrst (rst 0) vsource type=pwl wave=[ 0n 0 35n 0 ]
Vclk (clk 0) vsource type=pwl wave=[ 0n 0 4.9n 0 5.0n 0.9 5.5n 0.9 5.6n 0 14.9n 0 15.0n 0.9 15.5n 0.9 15.6n 0 24.9n 0 25.0n 0.9 25.5n 0.9 25.6n 0 35n 0 ]

XDUT (vin clk mode rst out metric) for_loop_windowed_peak

tran tran stop=35n
save vin clk mode rst out metric
