simulator lang=spectre
global 0

ahdl_include "bin_to_gray_8b.va"

Vb7 (b7 0) vsource type=pwl wave=[ 0n 0 9n 0 10n 0 19n 0 20n 0 29n 0 30n 0 39n 0 ]
Vb6 (b6 0) vsource type=pwl wave=[ 0n 0 9n 0 10n 0 19n 0 20n 0 29n 0 30n 0 39n 0 ]
Vb5 (b5 0) vsource type=pwl wave=[ 0n 0 9n 0 10n 0 19n 0 20n 0 29n 0 30n 0 39n 0 ]
Vb4 (b4 0) vsource type=pwl wave=[ 0n 0 9n 0 10n 0 19n 0 20n 0 29n 0 30n 0 39n 0 ]
Vb3 (b3 0) vsource type=pwl wave=[ 0n 0 9n 0 10n 0 19n 0 20n 0 29n 0 30n 0 39n 0 ]
Vb2 (b2 0) vsource type=pwl wave=[ 0n 0 9n 0 10n 0 19n 0 20n 0 29n 0 30n 0 39n 0 ]
Vb1 (b1 0) vsource type=pwl wave=[ 0n 0 9n 0 10n 0 19n 0 20n 0.9 29n 0.9 30n 0.9 39n 0.9 ]
Vb0 (b0 0) vsource type=pwl wave=[ 0n 0 9n 0 10n 0.9 19n 0.9 20n 0 29n 0 30n 0.9 39n 0.9 ]

XDUT (b7 b6 b5 b4 b3 b2 b1 b0 g7 g6 g5 g4 g3 g2 g1 g0) bin_to_gray_8b

tran tran stop=40n maxstep=500p
save b7 b6 b5 b4 b3 b2 b1 b0 g7 g6 g5 g4 g3 g2 g1 g0
