simulator lang=spectre
global 0
ahdl_include "pfd_active_low_reset.va"
Vref (ref 0) vsource type=pwl wave=[0 0 0.45n 0 0.47n 0.9 0.65n 0.9 0.67n 0 2.45n 0 2.47n 0.9 2.65n 0.9 2.67n 0 3.5n 0]
Vfb (fb 0) vsource type=pwl wave=[0 0 1.05n 0 1.07n 0.9 1.25n 0.9 1.27n 0 1.85n 0 1.87n 0.9 2.05n 0.9 2.07n 0 3.5n 0]
XDUT (ref fb upb down) pfd_active_low_reset
tran tran stop=3.0n maxstep=2p
save ref fb upb down
