simulator lang=spectre
global 0

ahdl_include "gray_to_bin_8b.va"

Vg7 (g7 0) vsource type=pwl wave=[ 0n 0 9n 0 10n 0 19n 0 20n 0 29n 0 30n 0 39n 0 40n 0 49n 0 50n 0 59n 0 60n 0 69n 0 70n 0 79n 0 80n 0 89n 0 90n 0 99n 0 100n 0.9 109n 0.9 110n 0.9 119n 0.9 120n 0.9 129n 0.9 ]
Vg6 (g6 0) vsource type=pwl wave=[ 0n 0 9n 0 10n 0 19n 0 20n 0 29n 0 30n 0 39n 0 40n 0 49n 0 50n 0 59n 0 60n 0 69n 0 70n 0 79n 0 80n 0 89n 0 90n 0.9 99n 0.9 100n 0.9 109n 0.9 110n 0 119n 0 120n 0 129n 0 ]
Vg5 (g5 0) vsource type=pwl wave=[ 0n 0 9n 0 10n 0 19n 0 20n 0 29n 0 30n 0 39n 0 40n 0 49n 0 50n 0 59n 0 60n 0 69n 0 70n 0 79n 0 80n 0.9 89n 0.9 90n 0 99n 0 100n 0 109n 0 110n 0.9 119n 0.9 120n 0 129n 0 ]
Vg4 (g4 0) vsource type=pwl wave=[ 0n 0 9n 0 10n 0 19n 0 20n 0 29n 0 30n 0 39n 0 40n 0 49n 0 50n 0 59n 0 60n 0.9 69n 0.9 70n 0.9 79n 0.9 80n 0 89n 0 90n 0 99n 0 100n 0 109n 0 110n 0 119n 0 120n 0 129n 0 ]
Vg3 (g3 0) vsource type=pwl wave=[ 0n 0 9n 0 10n 0 19n 0 20n 0 29n 0 30n 0 39n 0 40n 0 49n 0 50n 0.9 59n 0.9 60n 0.9 69n 0.9 70n 0 79n 0 80n 0 89n 0 90n 0 99n 0 100n 0 109n 0 110n 0.9 119n 0.9 120n 0 129n 0 ]
Vg2 (g2 0) vsource type=pwl wave=[ 0n 0 9n 0 10n 0 19n 0 20n 0 29n 0 30n 0 39n 0 40n 0.9 49n 0.9 50n 0 59n 0 60n 0 69n 0 70n 0 79n 0 80n 0 89n 0 90n 0 99n 0 100n 0 109n 0 110n 0.9 119n 0.9 120n 0 129n 0 ]
Vg1 (g1 0) vsource type=pwl wave=[ 0n 0 9n 0 10n 0 19n 0 20n 0.9 29n 0.9 30n 0.9 39n 0.9 40n 0 49n 0 50n 0 59n 0 60n 0 69n 0 70n 0 79n 0 80n 0 89n 0 90n 0 99n 0 100n 0 109n 0 110n 0 119n 0 120n 0 129n 0 ]
Vg0 (g0 0) vsource type=pwl wave=[ 0n 0 9n 0 10n 0.9 19n 0.9 20n 0.9 29n 0.9 30n 0 39n 0 40n 0 49n 0 50n 0 59n 0 60n 0 69n 0 70n 0 79n 0 80n 0 89n 0 90n 0 99n 0 100n 0 109n 0 110n 0 119n 0 120n 0 129n 0 ]

XDUT (g7 g6 g5 g4 g3 g2 g1 g0 b7 b6 b5 b4 b3 b2 b1 b0) gray_to_bin_8b

tran tran stop=130n maxstep=200p
save g7 g6 g5 g4 g3 g2 g1 g0 b7 b6 b5 b4 b3 b2 b1 b0
