simulator lang=spectre
global 0
ahdl_include "pfd_active_low_reset.va"
Vref (ref 0) vsource type=pwl wave=[0 0 0.60n 0 0.62n 0.9 0.84n 0.9 0.86n 0 2.24n 0 2.26n 0.9 2.48n 0.9 2.50n 0 3.00n 0 3.02n 0.9 3.24n 0.9 3.26n 0 3.8n 0]
Vfb (fb 0) vsource type=pwl wave=[0 0 1.00n 0 1.02n 0.9 1.24n 0.9 1.26n 0 1.78n 0 1.80n 0.9 2.02n 0.9 2.04n 0 3.10n 0 3.12n 0.9 3.34n 0.9 3.36n 0 3.8n 0]
XDUT (ref fb upb down) pfd_active_low_reset
tran tran stop=3.6n maxstep=2p
save ref fb upb down
