simulator lang=spectre
global 0

ahdl_include "dut_fixed.va"

Vin (vin 0) vsource type=pwl wave=[0 0 12n 0 13n 0.8 90n 0.8]

XDUT (vin vout) first_order_lowpass

tran tran stop=90n maxstep=500p
save vin vout
