simulator lang=spectre
global 0

ahdl_include "kcl_capacitor_ddt_current.va"

Vin (p 0) vsource type=pwl wave=[0 0.0 20n 0.0 24n 0.4 60n 0.4 64n 0.2 100n 0.2]
Vref (n 0) vsource type=pwl wave=[0 0.0 60n 0.0 64n 0.1 100n 0.1]

XDUT (p n imon) kcl_capacitor_ddt_current c=1p

tran tran stop=100n maxstep=0.25n
save p n imon
