simulator lang=spectre
global 0

ahdl_include "branch_current_probe_contribution.va"

Vp (p 0) vsource type=pwl wave=[0 0.00 20n 0.00 21n 0.50 60n 0.50 61n 0.20 100n 0.20]
Vn (n 0) vsource dc=0.0

XDUT (p n out) branch_current_probe_contribution

tran tran stop=100n
save p n out
