simulator lang=spectre
global 0

ahdl_include "bin_to_onehot_16b.va"

Ven (en 0) vsource type=pwl wave=[ 0n 0.9 9n 0.9 10n 0.9 19n 0.9 20n 0.9 29n 0.9 30n 0.9 39n 0.9 ]
Vb3 (b3 0) vsource type=pwl wave=[ 0n 0 9n 0 10n 0 19n 0 20n 0 29n 0 30n 0 39n 0 ]
Vb2 (b2 0) vsource type=pwl wave=[ 0n 0 9n 0 10n 0 19n 0 20n 0 29n 0 30n 0 39n 0 ]
Vb1 (b1 0) vsource type=pwl wave=[ 0n 0 9n 0 10n 0 19n 0 20n 0.9 29n 0.9 30n 0.9 39n 0.9 ]
Vb0 (b0 0) vsource type=pwl wave=[ 0n 0 9n 0 10n 0.9 19n 0.9 20n 0 29n 0 30n 0.9 39n 0.9 ]

XDUT (en b3 b2 b1 b0 oh15 oh14 oh13 oh12 oh11 oh10 oh9 oh8 oh7 oh6 oh5 oh4 oh3 oh2 oh1 oh0) bin_to_onehot_16b

tran tran stop=40n maxstep=500p
save en b3 b2 b1 b0 oh15 oh14 oh13 oh12 oh11 oh10 oh9 oh8 oh7 oh6 oh5 oh4 oh3 oh2 oh1 oh0
