simulator lang=spectre
global 0
ahdl_include "subradix_dac10.va"
Vd9 (vd9 0) vsource type=pwl wave=[0 0 0.7n 0 0.75n 0.9 1.4n 0.9 1.45n 0 2.1n 0 2.15n 0.9 2.8n 0.9 2.85n 0 3.6n 0]
Vd8 (vd8 0) vsource type=pwl wave=[0 0.9 0.7n 0.9 0.75n 0 1.4n 0 1.45n 0.9 2.1n 0.9 2.15n 0.9 2.8n 0.9 2.85n 0 3.6n 0]
Vd7 (vd7 0) vsource type=pwl wave=[0 0 0.7n 0 0.75n 0.9 1.4n 0.9 1.45n 0.9 2.1n 0.9 2.15n 0 2.8n 0 2.85n 0.9 3.6n 0.9]
Vd6 (vd6 0) vsource dc=0
Vd5 (vd5 0) vsource type=pwl wave=[0 0.9 0.7n 0.9 0.75n 0 1.4n 0 1.45n 0 2.1n 0 2.15n 0.9 2.8n 0.9 2.85n 0 3.6n 0]
Vd4 (vd4 0) vsource type=pwl wave=[0 0 0.7n 0 0.75n 0 1.4n 0 1.45n 0.9 2.1n 0.9 2.15n 0.9 2.8n 0.9 2.85n 0 3.6n 0]
Vd3 (vd3 0) vsource dc=0.9
Vd2 (vd2 0) vsource type=pwl wave=[0 0 0.7n 0 0.75n 0.9 1.4n 0.9 1.45n 0 2.1n 0 2.15n 0.9 2.8n 0.9 2.85n 0.9 3.6n 0.9]
Vd1 (vd1 0) vsource type=pwl wave=[0 0.9 0.7n 0.9 0.75n 0 1.4n 0 1.45n 0.9 2.1n 0.9 2.15n 0 2.8n 0 2.85n 0.9 3.6n 0.9]
Vd0 (vd0 0) vsource type=pwl wave=[0 0 0.7n 0 0.75n 0.9 1.4n 0.9 1.45n 0.9 2.1n 0.9 2.15n 0 2.8n 0 2.85n 0.9 3.6n 0.9]
XDUT (vd9 vd8 vd7 vd6 vd5 vd4 vd3 vd2 vd1 vd0 vout) subradix_dac10
tran tran stop=3.4n maxstep=5p
save vd9 vd8 vd7 vd6 vd5 vd4 vd3 vd2 vd1 vd0 vout
