simulator lang=spectre
global 0
ahdl_include "../solution/generate_genvar_replicated_stage.vams"

Va (a 0) vsource type=pwl wave=[0n 0 10n 0.25 20n 0.75 40n 0.1 70n 0.6]
Xdut (a y) generate_genvar_replicated_stage

tran tran stop=80n
save a y
