simulator lang=spectre
global 0
tran tran stop=80n
save vin clk mode rst out metric
