simulator lang=spectre
global 0

ahdl_include "wreal_logic_threshold_bridge.vams"

Vain (ain 0) vsource type=pwl wave=[0 0.20 79n 0.20 80n 0.55 179n 0.55 180n 0.35 279n 0.35 280n 0.82 379n 0.82 380n 0.42 500n 0.42]
Ven (en 0) vsource type=pwl wave=[0 1.0 149n 1.0 150n 0.0 249n 0.0 250n 1.0 500n 1.0]

XDUT (ain en flag) wreal_logic_threshold_bridge

tran tran stop=500n
save ain en flag
