simulator lang=spectre
global 0

ahdl_include "configurable_pulse_train.va"

V_clk (clk 0) vsource type=pulse val0=0 val1=0.9 period=8n delay=1n rise=100p fall=100p width=3.6n
V_start (start 0) vsource type=pwl wave=[0 0 16.6n 0 16.7n 0.9 24.6n 0.9 24.7n 0 130n 0]
V_period0 (period0 0) vsource dc=0.0
V_period1 (period1 0) vsource dc=0.0
V_period2 (period2 0) vsource dc=0.9
V_period3 (period3 0) vsource dc=0.0
V_width0 (width0 0) vsource dc=0.0
V_width1 (width1 0) vsource dc=0.9
V_width2 (width2 0) vsource dc=0.0
V_width3 (width3 0) vsource dc=0.0
V_count0 (count0 0) vsource dc=0.9
V_count1 (count1 0) vsource dc=0.9
V_count2 (count2 0) vsource dc=0.0
V_count3 (count3 0) vsource dc=0.0

XDUT (clk start period0 period1 period2 period3 width0 width1 width2 width3 count0 count1 count2 count3 pulse done) configurable_pulse_train

tran tran stop=130n maxstep=100p
save clk start period0 period1 period2 period3 width0 width1 width2 width3 count0 count1 count2 count3 pulse done
