simulator lang=spectre
global 0

ahdl_include "./dut/multitone.va"

XDUT (0 OUT) multitone


simulatorOptions options evas_profile=balanced

tran tran stop=500n maxstep=500p
save OUT
