simulator lang=spectre
global 0

ahdl_include "dc_aware_adc3bit.va"

Vin (vin 0) vsource type=pwl wave=[0n -0.02 1n -0.02 1.02n 0.1 3n 0.1 3.02n 0.31 5n 0.31 5.02n 0.58 7n 0.58 7.02n 0.92 9n 0.92 9.02n 1.08]

XDUT (vin d2 d1 d0) dc_aware_adc3bit

tran tran stop=11n maxstep=10p
save vin d2 d1 d0
