simulator lang=spectre
global 0

ahdl_include "nested_function_pipeline.va"

Vvin (vin 0) vsource type=pwl wave=[0 0.0 99n 0.0 100n 0.5 199n 0.5 200n -0.5 299n -0.5 300n 1.0 400n 1.0]

XDUT (vin out) nested_function_pipeline

tran tran stop=400n
save vin out
