simulator lang=spectre
global 0

ahdl_include "last_crossing_edge_age.va"

Vvin (vin 0) vsource type=pwl wave=[0 0.1 79n 0.1 80n 0.8 160n 0.8 161n 0.1 459n 0.1 460n 0.8 560n 0.8 561n 0.1 800n 0.1]
Vmode (mode 0) vsource dc=0.0 type=dc
Vrst (rst 0) vsource type=pwl wave=[0 0.0 669n 0.0 670n 0.9 699n 0.9 700n 0.0 800n 0.0]
Vclk (clk 0) vsource dc=0.0 type=dc

XDUT (vin clk mode rst out metric) last_crossing_edge_age

tran tran stop=800n
save vin clk mode rst out metric
