simulator lang=spectre
global 0

ahdl_include "idtmod_clock_phase_meter.va"

Vvin (vin 0) vsource dc=0.4 type=dc
Vmode (mode 0) vsource dc=0.55 type=dc
Vrst (rst 0) vsource dc=0.0 type=dc
Vclk (clk 0) vsource type=pwl wave=[0 0.0 99n 0.0 100n 0.9 120n 0.9 121n 0.0 299n 0.0 300n 0.9 320n 0.9 321n 0.0 499n 0.0 500n 0.9 520n 0.9 521n 0.0 699n 0.0 700n 0.9 720n 0.9 721n 0.0]

XDUT (vin clk mode rst out metric) idtmod_clock_phase_meter

tran tran stop=780n
save vin clk mode rst out metric
