simulator lang=spectre
global 0

ahdl_include "./dut/multitone.va"

XDUT (0 OUT) multitone


tran tran stop=650n maxstep=400p
save OUT
