simulator lang=spectre
global 0

ahdl_include "./dut/therm_to_bin_8b.va"

Vth0 (th0 0) vsource type=pwl wave=[0 0 9.5n 0 10n 0.9 19.5n 0.9 20n 0.9 29.5n 0.9 30n 0.9 39.5n 0.9 40n 0.9 49.5n 0.9 50n 0.9 59.5n 0.9 60n 0.9 69.5n 0.9 70n 0.9 79.5n 0.9 80n 0.9 89.5n 0.9 90n 0.9 99.5n 0.9 100n 0.9 109.5n 0.9 110n 0.9 119.5n 0.9 120n 0.9 129.5n 0.9 130n 0.9 139.5n 0.9]
Vth1 (th1 0) vsource type=pwl wave=[0 0 9.5n 0 10n 0 19.5n 0 20n 0.9 29.5n 0.9 30n 0.9 39.5n 0.9 40n 0.9 49.5n 0.9 50n 0.9 59.5n 0.9 60n 0.9 69.5n 0.9 70n 0.9 79.5n 0.9 80n 0.9 89.5n 0.9 90n 0.9 99.5n 0.9 100n 0.9 109.5n 0.9 110n 0.9 119.5n 0.9 120n 0.9 129.5n 0.9 130n 0 139.5n 0]
Vth2 (th2 0) vsource type=pwl wave=[0 0 9.5n 0 10n 0 19.5n 0 20n 0 29.5n 0 30n 0.9 39.5n 0.9 40n 0.9 49.5n 0.9 50n 0.9 59.5n 0.9 60n 0.9 69.5n 0.9 70n 0.9 79.5n 0.9 80n 0.9 89.5n 0.9 90n 0.9 99.5n 0.9 100n 0.9 109.5n 0.9 110n 0.9 119.5n 0.9 120n 0.9 129.5n 0.9 130n 0.9 139.5n 0.9]
Vth3 (th3 0) vsource type=pwl wave=[0 0 9.5n 0 10n 0 19.5n 0 20n 0 29.5n 0 30n 0 39.5n 0 40n 0.9 49.5n 0.9 50n 0.9 59.5n 0.9 60n 0.9 69.5n 0.9 70n 0.9 79.5n 0.9 80n 0.9 89.5n 0.9 90n 0.9 99.5n 0.9 100n 0.9 109.5n 0.9 110n 0.9 119.5n 0.9 120n 0.9 129.5n 0.9 130n 0.9 139.5n 0.9]
Vth4 (th4 0) vsource type=pwl wave=[0 0 9.5n 0 10n 0 19.5n 0 20n 0 29.5n 0 30n 0 39.5n 0 40n 0.9 49.5n 0.9 50n 0.9 59.5n 0.9 60n 0.9 69.5n 0.9 70n 0.9 79.5n 0.9 80n 0.9 89.5n 0.9 90n 0.9 99.5n 0.9 100n 0.9 109.5n 0.9 110n 0.9 119.5n 0.9 120n 0.9 129.5n 0.9 130n 0 139.5n 0]
Vth5 (th5 0) vsource type=pwl wave=[0 0 9.5n 0 10n 0 19.5n 0 20n 0 29.5n 0 30n 0 39.5n 0 40n 0.9 49.5n 0.9 50n 0.9 59.5n 0.9 60n 0.9 69.5n 0.9 70n 0.9 79.5n 0.9 80n 0.9 89.5n 0.9 90n 0.9 99.5n 0.9 100n 0.9 109.5n 0.9 110n 0.9 119.5n 0.9 120n 0.9 129.5n 0.9 130n 0 139.5n 0]
Vth6 (th6 0) vsource type=pwl wave=[0 0 9.5n 0 10n 0 19.5n 0 20n 0 29.5n 0 30n 0 39.5n 0 40n 0.9 49.5n 0.9 50n 0.9 59.5n 0.9 60n 0.9 69.5n 0.9 70n 0.9 79.5n 0.9 80n 0.9 89.5n 0.9 90n 0.9 99.5n 0.9 100n 0.9 109.5n 0.9 110n 0.9 119.5n 0.9 120n 0.9 129.5n 0.9 130n 0 139.5n 0]
Vth7 (th7 0) vsource type=pwl wave=[0 0 9.5n 0 10n 0 19.5n 0 20n 0 29.5n 0 30n 0 39.5n 0 40n 0 49.5n 0 50n 0.9 59.5n 0.9 60n 0.9 69.5n 0.9 70n 0.9 79.5n 0.9 80n 0.9 89.5n 0.9 90n 0.9 99.5n 0.9 100n 0.9 109.5n 0.9 110n 0.9 119.5n 0.9 120n 0.9 129.5n 0.9 130n 0 139.5n 0]
Vth8 (th8 0) vsource type=pwl wave=[0 0 9.5n 0 10n 0 19.5n 0 20n 0 29.5n 0 30n 0 39.5n 0 40n 0 49.5n 0 50n 0.9 59.5n 0.9 60n 0.9 69.5n 0.9 70n 0.9 79.5n 0.9 80n 0.9 89.5n 0.9 90n 0.9 99.5n 0.9 100n 0.9 109.5n 0.9 110n 0.9 119.5n 0.9 120n 0.9 129.5n 0.9 130n 0 139.5n 0]
Vth9 (th9 0) vsource type=pwl wave=[0 0 9.5n 0 10n 0 19.5n 0 20n 0 29.5n 0 30n 0 39.5n 0 40n 0 49.5n 0 50n 0.9 59.5n 0.9 60n 0.9 69.5n 0.9 70n 0.9 79.5n 0.9 80n 0.9 89.5n 0.9 90n 0.9 99.5n 0.9 100n 0.9 109.5n 0.9 110n 0.9 119.5n 0.9 120n 0.9 129.5n 0.9 130n 0 139.5n 0]
Vth10 (th10 0) vsource type=pwl wave=[0 0 9.5n 0 10n 0 19.5n 0 20n 0 29.5n 0 30n 0 39.5n 0 40n 0 49.5n 0 50n 0.9 59.5n 0.9 60n 0.9 69.5n 0.9 70n 0.9 79.5n 0.9 80n 0.9 89.5n 0.9 90n 0.9 99.5n 0.9 100n 0.9 109.5n 0.9 110n 0.9 119.5n 0.9 120n 0.9 129.5n 0.9 130n 0 139.5n 0]
Vth11 (th11 0) vsource type=pwl wave=[0 0 9.5n 0 10n 0 19.5n 0 20n 0 29.5n 0 30n 0 39.5n 0 40n 0 49.5n 0 50n 0.9 59.5n 0.9 60n 0.9 69.5n 0.9 70n 0.9 79.5n 0.9 80n 0.9 89.5n 0.9 90n 0.9 99.5n 0.9 100n 0.9 109.5n 0.9 110n 0.9 119.5n 0.9 120n 0.9 129.5n 0.9 130n 0 139.5n 0]
Vth12 (th12 0) vsource type=pwl wave=[0 0 9.5n 0 10n 0 19.5n 0 20n 0 29.5n 0 30n 0 39.5n 0 40n 0 49.5n 0 50n 0.9 59.5n 0.9 60n 0.9 69.5n 0.9 70n 0.9 79.5n 0.9 80n 0.9 89.5n 0.9 90n 0.9 99.5n 0.9 100n 0.9 109.5n 0.9 110n 0.9 119.5n 0.9 120n 0.9 129.5n 0.9 130n 0 139.5n 0]
Vth13 (th13 0) vsource type=pwl wave=[0 0 9.5n 0 10n 0 19.5n 0 20n 0 29.5n 0 30n 0 39.5n 0 40n 0 49.5n 0 50n 0.9 59.5n 0.9 60n 0.9 69.5n 0.9 70n 0.9 79.5n 0.9 80n 0.9 89.5n 0.9 90n 0.9 99.5n 0.9 100n 0.9 109.5n 0.9 110n 0.9 119.5n 0.9 120n 0.9 129.5n 0.9 130n 0 139.5n 0]
Vth14 (th14 0) vsource type=pwl wave=[0 0 9.5n 0 10n 0 19.5n 0 20n 0 29.5n 0 30n 0 39.5n 0 40n 0 49.5n 0 50n 0.9 59.5n 0.9 60n 0.9 69.5n 0.9 70n 0.9 79.5n 0.9 80n 0.9 89.5n 0.9 90n 0.9 99.5n 0.9 100n 0.9 109.5n 0.9 110n 0.9 119.5n 0.9 120n 0.9 129.5n 0.9 130n 0 139.5n 0]
Vth15 (th15 0) vsource type=pwl wave=[0 0 9.5n 0 10n 0 19.5n 0 20n 0 29.5n 0 30n 0 39.5n 0 40n 0 49.5n 0 50n 0 59.5n 0 60n 0.9 69.5n 0.9 70n 0.9 79.5n 0.9 80n 0.9 89.5n 0.9 90n 0.9 99.5n 0.9 100n 0.9 109.5n 0.9 110n 0.9 119.5n 0.9 120n 0.9 129.5n 0.9 130n 0 139.5n 0]
Vth16 (th16 0) vsource type=pwl wave=[0 0 9.5n 0 10n 0 19.5n 0 20n 0 29.5n 0 30n 0 39.5n 0 40n 0 49.5n 0 50n 0 59.5n 0 60n 0 69.5n 0 70n 0.9 79.5n 0.9 80n 0.9 89.5n 0.9 90n 0.9 99.5n 0.9 100n 0.9 109.5n 0.9 110n 0.9 119.5n 0.9 120n 0.9 129.5n 0.9 130n 0 139.5n 0]
Vth17 (th17 0) vsource type=pwl wave=[0 0 9.5n 0 10n 0 19.5n 0 20n 0 29.5n 0 30n 0 39.5n 0 40n 0 49.5n 0 50n 0 59.5n 0 60n 0 69.5n 0 70n 0.9 79.5n 0.9 80n 0.9 89.5n 0.9 90n 0.9 99.5n 0.9 100n 0.9 109.5n 0.9 110n 0.9 119.5n 0.9 120n 0.9 129.5n 0.9 130n 0 139.5n 0]
Vth18 (th18 0) vsource type=pwl wave=[0 0 9.5n 0 10n 0 19.5n 0 20n 0 29.5n 0 30n 0 39.5n 0 40n 0 49.5n 0 50n 0 59.5n 0 60n 0 69.5n 0 70n 0.9 79.5n 0.9 80n 0.9 89.5n 0.9 90n 0.9 99.5n 0.9 100n 0.9 109.5n 0.9 110n 0.9 119.5n 0.9 120n 0.9 129.5n 0.9 130n 0 139.5n 0]
Vth19 (th19 0) vsource type=pwl wave=[0 0 9.5n 0 10n 0 19.5n 0 20n 0 29.5n 0 30n 0 39.5n 0 40n 0 49.5n 0 50n 0 59.5n 0 60n 0 69.5n 0 70n 0.9 79.5n 0.9 80n 0.9 89.5n 0.9 90n 0.9 99.5n 0.9 100n 0.9 109.5n 0.9 110n 0.9 119.5n 0.9 120n 0.9 129.5n 0.9 130n 0 139.5n 0]
Vth20 (th20 0) vsource type=pwl wave=[0 0 9.5n 0 10n 0 19.5n 0 20n 0 29.5n 0 30n 0 39.5n 0 40n 0 49.5n 0 50n 0 59.5n 0 60n 0 69.5n 0 70n 0.9 79.5n 0.9 80n 0.9 89.5n 0.9 90n 0.9 99.5n 0.9 100n 0.9 109.5n 0.9 110n 0.9 119.5n 0.9 120n 0.9 129.5n 0.9 130n 0 139.5n 0]
Vth21 (th21 0) vsource type=pwl wave=[0 0 9.5n 0 10n 0 19.5n 0 20n 0 29.5n 0 30n 0 39.5n 0 40n 0 49.5n 0 50n 0 59.5n 0 60n 0 69.5n 0 70n 0.9 79.5n 0.9 80n 0.9 89.5n 0.9 90n 0.9 99.5n 0.9 100n 0.9 109.5n 0.9 110n 0.9 119.5n 0.9 120n 0.9 129.5n 0.9 130n 0 139.5n 0]
Vth22 (th22 0) vsource type=pwl wave=[0 0 9.5n 0 10n 0 19.5n 0 20n 0 29.5n 0 30n 0 39.5n 0 40n 0 49.5n 0 50n 0 59.5n 0 60n 0 69.5n 0 70n 0.9 79.5n 0.9 80n 0.9 89.5n 0.9 90n 0.9 99.5n 0.9 100n 0.9 109.5n 0.9 110n 0.9 119.5n 0.9 120n 0.9 129.5n 0.9 130n 0 139.5n 0]
Vth23 (th23 0) vsource type=pwl wave=[0 0 9.5n 0 10n 0 19.5n 0 20n 0 29.5n 0 30n 0 39.5n 0 40n 0 49.5n 0 50n 0 59.5n 0 60n 0 69.5n 0 70n 0.9 79.5n 0.9 80n 0.9 89.5n 0.9 90n 0.9 99.5n 0.9 100n 0.9 109.5n 0.9 110n 0.9 119.5n 0.9 120n 0.9 129.5n 0.9 130n 0 139.5n 0]
Vth24 (th24 0) vsource type=pwl wave=[0 0 9.5n 0 10n 0 19.5n 0 20n 0 29.5n 0 30n 0 39.5n 0 40n 0 49.5n 0 50n 0 59.5n 0 60n 0 69.5n 0 70n 0.9 79.5n 0.9 80n 0.9 89.5n 0.9 90n 0.9 99.5n 0.9 100n 0.9 109.5n 0.9 110n 0.9 119.5n 0.9 120n 0.9 129.5n 0.9 130n 0 139.5n 0]
Vth25 (th25 0) vsource type=pwl wave=[0 0 9.5n 0 10n 0 19.5n 0 20n 0 29.5n 0 30n 0 39.5n 0 40n 0 49.5n 0 50n 0 59.5n 0 60n 0 69.5n 0 70n 0.9 79.5n 0.9 80n 0.9 89.5n 0.9 90n 0.9 99.5n 0.9 100n 0.9 109.5n 0.9 110n 0.9 119.5n 0.9 120n 0.9 129.5n 0.9 130n 0 139.5n 0]
Vth26 (th26 0) vsource type=pwl wave=[0 0 9.5n 0 10n 0 19.5n 0 20n 0 29.5n 0 30n 0 39.5n 0 40n 0 49.5n 0 50n 0 59.5n 0 60n 0 69.5n 0 70n 0.9 79.5n 0.9 80n 0.9 89.5n 0.9 90n 0.9 99.5n 0.9 100n 0.9 109.5n 0.9 110n 0.9 119.5n 0.9 120n 0.9 129.5n 0.9 130n 0 139.5n 0]
Vth27 (th27 0) vsource type=pwl wave=[0 0 9.5n 0 10n 0 19.5n 0 20n 0 29.5n 0 30n 0 39.5n 0 40n 0 49.5n 0 50n 0 59.5n 0 60n 0 69.5n 0 70n 0.9 79.5n 0.9 80n 0.9 89.5n 0.9 90n 0.9 99.5n 0.9 100n 0.9 109.5n 0.9 110n 0.9 119.5n 0.9 120n 0.9 129.5n 0.9 130n 0 139.5n 0]
Vth28 (th28 0) vsource type=pwl wave=[0 0 9.5n 0 10n 0 19.5n 0 20n 0 29.5n 0 30n 0 39.5n 0 40n 0 49.5n 0 50n 0 59.5n 0 60n 0 69.5n 0 70n 0.9 79.5n 0.9 80n 0.9 89.5n 0.9 90n 0.9 99.5n 0.9 100n 0.9 109.5n 0.9 110n 0.9 119.5n 0.9 120n 0.9 129.5n 0.9 130n 0 139.5n 0]
Vth29 (th29 0) vsource type=pwl wave=[0 0 9.5n 0 10n 0 19.5n 0 20n 0 29.5n 0 30n 0 39.5n 0 40n 0 49.5n 0 50n 0 59.5n 0 60n 0 69.5n 0 70n 0.9 79.5n 0.9 80n 0.9 89.5n 0.9 90n 0.9 99.5n 0.9 100n 0.9 109.5n 0.9 110n 0.9 119.5n 0.9 120n 0.9 129.5n 0.9 130n 0 139.5n 0]
Vth30 (th30 0) vsource type=pwl wave=[0 0 9.5n 0 10n 0 19.5n 0 20n 0 29.5n 0 30n 0 39.5n 0 40n 0 49.5n 0 50n 0 59.5n 0 60n 0 69.5n 0 70n 0.9 79.5n 0.9 80n 0.9 89.5n 0.9 90n 0.9 99.5n 0.9 100n 0.9 109.5n 0.9 110n 0.9 119.5n 0.9 120n 0.9 129.5n 0.9 130n 0 139.5n 0]
Vth31 (th31 0) vsource type=pwl wave=[0 0 9.5n 0 10n 0 19.5n 0 20n 0 29.5n 0 30n 0 39.5n 0 40n 0 49.5n 0 50n 0 59.5n 0 60n 0 69.5n 0 70n 0 79.5n 0 80n 0.9 89.5n 0.9 90n 0.9 99.5n 0.9 100n 0.9 109.5n 0.9 110n 0.9 119.5n 0.9 120n 0.9 129.5n 0.9 130n 0 139.5n 0]
Vth32 (th32 0) vsource type=pwl wave=[0 0 9.5n 0 10n 0 19.5n 0 20n 0 29.5n 0 30n 0 39.5n 0 40n 0 49.5n 0 50n 0 59.5n 0 60n 0 69.5n 0 70n 0 79.5n 0 80n 0.9 89.5n 0.9 90n 0.9 99.5n 0.9 100n 0.9 109.5n 0.9 110n 0.9 119.5n 0.9 120n 0.9 129.5n 0.9 130n 0 139.5n 0]
Vth33 (th33 0) vsource type=pwl wave=[0 0 9.5n 0 10n 0 19.5n 0 20n 0 29.5n 0 30n 0 39.5n 0 40n 0 49.5n 0 50n 0 59.5n 0 60n 0 69.5n 0 70n 0 79.5n 0 80n 0.9 89.5n 0.9 90n 0.9 99.5n 0.9 100n 0.9 109.5n 0.9 110n 0.9 119.5n 0.9 120n 0.9 129.5n 0.9 130n 0 139.5n 0]
Vth34 (th34 0) vsource type=pwl wave=[0 0 9.5n 0 10n 0 19.5n 0 20n 0 29.5n 0 30n 0 39.5n 0 40n 0 49.5n 0 50n 0 59.5n 0 60n 0 69.5n 0 70n 0 79.5n 0 80n 0.9 89.5n 0.9 90n 0.9 99.5n 0.9 100n 0.9 109.5n 0.9 110n 0.9 119.5n 0.9 120n 0.9 129.5n 0.9 130n 0 139.5n 0]
Vth35 (th35 0) vsource type=pwl wave=[0 0 9.5n 0 10n 0 19.5n 0 20n 0 29.5n 0 30n 0 39.5n 0 40n 0 49.5n 0 50n 0 59.5n 0 60n 0 69.5n 0 70n 0 79.5n 0 80n 0.9 89.5n 0.9 90n 0.9 99.5n 0.9 100n 0.9 109.5n 0.9 110n 0.9 119.5n 0.9 120n 0.9 129.5n 0.9 130n 0 139.5n 0]
Vth36 (th36 0) vsource type=pwl wave=[0 0 9.5n 0 10n 0 19.5n 0 20n 0 29.5n 0 30n 0 39.5n 0 40n 0 49.5n 0 50n 0 59.5n 0 60n 0 69.5n 0 70n 0 79.5n 0 80n 0.9 89.5n 0.9 90n 0.9 99.5n 0.9 100n 0.9 109.5n 0.9 110n 0.9 119.5n 0.9 120n 0.9 129.5n 0.9 130n 0 139.5n 0]
Vth37 (th37 0) vsource type=pwl wave=[0 0 9.5n 0 10n 0 19.5n 0 20n 0 29.5n 0 30n 0 39.5n 0 40n 0 49.5n 0 50n 0 59.5n 0 60n 0 69.5n 0 70n 0 79.5n 0 80n 0.9 89.5n 0.9 90n 0.9 99.5n 0.9 100n 0.9 109.5n 0.9 110n 0.9 119.5n 0.9 120n 0.9 129.5n 0.9 130n 0 139.5n 0]
Vth38 (th38 0) vsource type=pwl wave=[0 0 9.5n 0 10n 0 19.5n 0 20n 0 29.5n 0 30n 0 39.5n 0 40n 0 49.5n 0 50n 0 59.5n 0 60n 0 69.5n 0 70n 0 79.5n 0 80n 0.9 89.5n 0.9 90n 0.9 99.5n 0.9 100n 0.9 109.5n 0.9 110n 0.9 119.5n 0.9 120n 0.9 129.5n 0.9 130n 0 139.5n 0]
Vth39 (th39 0) vsource type=pwl wave=[0 0 9.5n 0 10n 0 19.5n 0 20n 0 29.5n 0 30n 0 39.5n 0 40n 0 49.5n 0 50n 0 59.5n 0 60n 0 69.5n 0 70n 0 79.5n 0 80n 0.9 89.5n 0.9 90n 0.9 99.5n 0.9 100n 0.9 109.5n 0.9 110n 0.9 119.5n 0.9 120n 0.9 129.5n 0.9 130n 0 139.5n 0]
Vth40 (th40 0) vsource type=pwl wave=[0 0 9.5n 0 10n 0 19.5n 0 20n 0 29.5n 0 30n 0 39.5n 0 40n 0 49.5n 0 50n 0 59.5n 0 60n 0 69.5n 0 70n 0 79.5n 0 80n 0.9 89.5n 0.9 90n 0.9 99.5n 0.9 100n 0.9 109.5n 0.9 110n 0.9 119.5n 0.9 120n 0.9 129.5n 0.9 130n 0 139.5n 0]
Vth41 (th41 0) vsource type=pwl wave=[0 0 9.5n 0 10n 0 19.5n 0 20n 0 29.5n 0 30n 0 39.5n 0 40n 0 49.5n 0 50n 0 59.5n 0 60n 0 69.5n 0 70n 0 79.5n 0 80n 0.9 89.5n 0.9 90n 0.9 99.5n 0.9 100n 0.9 109.5n 0.9 110n 0.9 119.5n 0.9 120n 0.9 129.5n 0.9 130n 0 139.5n 0]
Vth42 (th42 0) vsource type=pwl wave=[0 0 9.5n 0 10n 0 19.5n 0 20n 0 29.5n 0 30n 0 39.5n 0 40n 0 49.5n 0 50n 0 59.5n 0 60n 0 69.5n 0 70n 0 79.5n 0 80n 0.9 89.5n 0.9 90n 0.9 99.5n 0.9 100n 0.9 109.5n 0.9 110n 0.9 119.5n 0.9 120n 0.9 129.5n 0.9 130n 0 139.5n 0]
Vth43 (th43 0) vsource type=pwl wave=[0 0 9.5n 0 10n 0 19.5n 0 20n 0 29.5n 0 30n 0 39.5n 0 40n 0 49.5n 0 50n 0 59.5n 0 60n 0 69.5n 0 70n 0 79.5n 0 80n 0.9 89.5n 0.9 90n 0.9 99.5n 0.9 100n 0.9 109.5n 0.9 110n 0.9 119.5n 0.9 120n 0.9 129.5n 0.9 130n 0 139.5n 0]
Vth44 (th44 0) vsource type=pwl wave=[0 0 9.5n 0 10n 0 19.5n 0 20n 0 29.5n 0 30n 0 39.5n 0 40n 0 49.5n 0 50n 0 59.5n 0 60n 0 69.5n 0 70n 0 79.5n 0 80n 0.9 89.5n 0.9 90n 0.9 99.5n 0.9 100n 0.9 109.5n 0.9 110n 0.9 119.5n 0.9 120n 0.9 129.5n 0.9 130n 0 139.5n 0]
Vth45 (th45 0) vsource type=pwl wave=[0 0 9.5n 0 10n 0 19.5n 0 20n 0 29.5n 0 30n 0 39.5n 0 40n 0 49.5n 0 50n 0 59.5n 0 60n 0 69.5n 0 70n 0 79.5n 0 80n 0.9 89.5n 0.9 90n 0.9 99.5n 0.9 100n 0.9 109.5n 0.9 110n 0.9 119.5n 0.9 120n 0.9 129.5n 0.9 130n 0 139.5n 0]
Vth46 (th46 0) vsource type=pwl wave=[0 0 9.5n 0 10n 0 19.5n 0 20n 0 29.5n 0 30n 0 39.5n 0 40n 0 49.5n 0 50n 0 59.5n 0 60n 0 69.5n 0 70n 0 79.5n 0 80n 0.9 89.5n 0.9 90n 0.9 99.5n 0.9 100n 0.9 109.5n 0.9 110n 0.9 119.5n 0.9 120n 0.9 129.5n 0.9 130n 0 139.5n 0]
Vth47 (th47 0) vsource type=pwl wave=[0 0 9.5n 0 10n 0 19.5n 0 20n 0 29.5n 0 30n 0 39.5n 0 40n 0 49.5n 0 50n 0 59.5n 0 60n 0 69.5n 0 70n 0 79.5n 0 80n 0.9 89.5n 0.9 90n 0.9 99.5n 0.9 100n 0.9 109.5n 0.9 110n 0.9 119.5n 0.9 120n 0.9 129.5n 0.9 130n 0 139.5n 0]
Vth48 (th48 0) vsource type=pwl wave=[0 0 9.5n 0 10n 0 19.5n 0 20n 0 29.5n 0 30n 0 39.5n 0 40n 0 49.5n 0 50n 0 59.5n 0 60n 0 69.5n 0 70n 0 79.5n 0 80n 0.9 89.5n 0.9 90n 0.9 99.5n 0.9 100n 0.9 109.5n 0.9 110n 0.9 119.5n 0.9 120n 0.9 129.5n 0.9 130n 0 139.5n 0]
Vth49 (th49 0) vsource type=pwl wave=[0 0 9.5n 0 10n 0 19.5n 0 20n 0 29.5n 0 30n 0 39.5n 0 40n 0 49.5n 0 50n 0 59.5n 0 60n 0 69.5n 0 70n 0 79.5n 0 80n 0.9 89.5n 0.9 90n 0.9 99.5n 0.9 100n 0.9 109.5n 0.9 110n 0.9 119.5n 0.9 120n 0.9 129.5n 0.9 130n 0 139.5n 0]
Vth50 (th50 0) vsource type=pwl wave=[0 0 9.5n 0 10n 0 19.5n 0 20n 0 29.5n 0 30n 0 39.5n 0 40n 0 49.5n 0 50n 0 59.5n 0 60n 0 69.5n 0 70n 0 79.5n 0 80n 0.9 89.5n 0.9 90n 0.9 99.5n 0.9 100n 0.9 109.5n 0.9 110n 0.9 119.5n 0.9 120n 0.9 129.5n 0.9 130n 0 139.5n 0]
Vth51 (th51 0) vsource type=pwl wave=[0 0 9.5n 0 10n 0 19.5n 0 20n 0 29.5n 0 30n 0 39.5n 0 40n 0 49.5n 0 50n 0 59.5n 0 60n 0 69.5n 0 70n 0 79.5n 0 80n 0.9 89.5n 0.9 90n 0.9 99.5n 0.9 100n 0.9 109.5n 0.9 110n 0.9 119.5n 0.9 120n 0.9 129.5n 0.9 130n 0 139.5n 0]
Vth52 (th52 0) vsource type=pwl wave=[0 0 9.5n 0 10n 0 19.5n 0 20n 0 29.5n 0 30n 0 39.5n 0 40n 0 49.5n 0 50n 0 59.5n 0 60n 0 69.5n 0 70n 0 79.5n 0 80n 0.9 89.5n 0.9 90n 0.9 99.5n 0.9 100n 0.9 109.5n 0.9 110n 0.9 119.5n 0.9 120n 0.9 129.5n 0.9 130n 0 139.5n 0]
Vth53 (th53 0) vsource type=pwl wave=[0 0 9.5n 0 10n 0 19.5n 0 20n 0 29.5n 0 30n 0 39.5n 0 40n 0 49.5n 0 50n 0 59.5n 0 60n 0 69.5n 0 70n 0 79.5n 0 80n 0.9 89.5n 0.9 90n 0.9 99.5n 0.9 100n 0.9 109.5n 0.9 110n 0.9 119.5n 0.9 120n 0.9 129.5n 0.9 130n 0 139.5n 0]
Vth54 (th54 0) vsource type=pwl wave=[0 0 9.5n 0 10n 0 19.5n 0 20n 0 29.5n 0 30n 0 39.5n 0 40n 0 49.5n 0 50n 0 59.5n 0 60n 0 69.5n 0 70n 0 79.5n 0 80n 0.9 89.5n 0.9 90n 0.9 99.5n 0.9 100n 0.9 109.5n 0.9 110n 0.9 119.5n 0.9 120n 0.9 129.5n 0.9 130n 0 139.5n 0]
Vth55 (th55 0) vsource type=pwl wave=[0 0 9.5n 0 10n 0 19.5n 0 20n 0 29.5n 0 30n 0 39.5n 0 40n 0 49.5n 0 50n 0 59.5n 0 60n 0 69.5n 0 70n 0 79.5n 0 80n 0.9 89.5n 0.9 90n 0.9 99.5n 0.9 100n 0.9 109.5n 0.9 110n 0.9 119.5n 0.9 120n 0.9 129.5n 0.9 130n 0 139.5n 0]
Vth56 (th56 0) vsource type=pwl wave=[0 0 9.5n 0 10n 0 19.5n 0 20n 0 29.5n 0 30n 0 39.5n 0 40n 0 49.5n 0 50n 0 59.5n 0 60n 0 69.5n 0 70n 0 79.5n 0 80n 0.9 89.5n 0.9 90n 0.9 99.5n 0.9 100n 0.9 109.5n 0.9 110n 0.9 119.5n 0.9 120n 0.9 129.5n 0.9 130n 0 139.5n 0]
Vth57 (th57 0) vsource type=pwl wave=[0 0 9.5n 0 10n 0 19.5n 0 20n 0 29.5n 0 30n 0 39.5n 0 40n 0 49.5n 0 50n 0 59.5n 0 60n 0 69.5n 0 70n 0 79.5n 0 80n 0.9 89.5n 0.9 90n 0.9 99.5n 0.9 100n 0.9 109.5n 0.9 110n 0.9 119.5n 0.9 120n 0.9 129.5n 0.9 130n 0 139.5n 0]
Vth58 (th58 0) vsource type=pwl wave=[0 0 9.5n 0 10n 0 19.5n 0 20n 0 29.5n 0 30n 0 39.5n 0 40n 0 49.5n 0 50n 0 59.5n 0 60n 0 69.5n 0 70n 0 79.5n 0 80n 0.9 89.5n 0.9 90n 0.9 99.5n 0.9 100n 0.9 109.5n 0.9 110n 0.9 119.5n 0.9 120n 0.9 129.5n 0.9 130n 0 139.5n 0]
Vth59 (th59 0) vsource type=pwl wave=[0 0 9.5n 0 10n 0 19.5n 0 20n 0 29.5n 0 30n 0 39.5n 0 40n 0 49.5n 0 50n 0 59.5n 0 60n 0 69.5n 0 70n 0 79.5n 0 80n 0.9 89.5n 0.9 90n 0.9 99.5n 0.9 100n 0.9 109.5n 0.9 110n 0.9 119.5n 0.9 120n 0.9 129.5n 0.9 130n 0 139.5n 0]
Vth60 (th60 0) vsource type=pwl wave=[0 0 9.5n 0 10n 0 19.5n 0 20n 0 29.5n 0 30n 0 39.5n 0 40n 0 49.5n 0 50n 0 59.5n 0 60n 0 69.5n 0 70n 0 79.5n 0 80n 0.9 89.5n 0.9 90n 0.9 99.5n 0.9 100n 0.9 109.5n 0.9 110n 0.9 119.5n 0.9 120n 0.9 129.5n 0.9 130n 0 139.5n 0]
Vth61 (th61 0) vsource type=pwl wave=[0 0 9.5n 0 10n 0 19.5n 0 20n 0 29.5n 0 30n 0 39.5n 0 40n 0 49.5n 0 50n 0 59.5n 0 60n 0 69.5n 0 70n 0 79.5n 0 80n 0.9 89.5n 0.9 90n 0.9 99.5n 0.9 100n 0.9 109.5n 0.9 110n 0.9 119.5n 0.9 120n 0.9 129.5n 0.9 130n 0 139.5n 0]
Vth62 (th62 0) vsource type=pwl wave=[0 0 9.5n 0 10n 0 19.5n 0 20n 0 29.5n 0 30n 0 39.5n 0 40n 0 49.5n 0 50n 0 59.5n 0 60n 0 69.5n 0 70n 0 79.5n 0 80n 0.9 89.5n 0.9 90n 0.9 99.5n 0.9 100n 0.9 109.5n 0.9 110n 0.9 119.5n 0.9 120n 0.9 129.5n 0.9 130n 0 139.5n 0]
Vth63 (th63 0) vsource type=pwl wave=[0 0 9.5n 0 10n 0 19.5n 0 20n 0 29.5n 0 30n 0 39.5n 0 40n 0 49.5n 0 50n 0 59.5n 0 60n 0 69.5n 0 70n 0 79.5n 0 80n 0 89.5n 0 90n 0.9 99.5n 0.9 100n 0.9 109.5n 0.9 110n 0.9 119.5n 0.9 120n 0.9 129.5n 0.9 130n 0 139.5n 0]
Vth64 (th64 0) vsource type=pwl wave=[0 0 9.5n 0 10n 0 19.5n 0 20n 0 29.5n 0 30n 0 39.5n 0 40n 0 49.5n 0 50n 0 59.5n 0 60n 0 69.5n 0 70n 0 79.5n 0 80n 0 89.5n 0 90n 0.9 99.5n 0.9 100n 0.9 109.5n 0.9 110n 0.9 119.5n 0.9 120n 0.9 129.5n 0.9 130n 0 139.5n 0]
Vth65 (th65 0) vsource type=pwl wave=[0 0 9.5n 0 10n 0 19.5n 0 20n 0 29.5n 0 30n 0 39.5n 0 40n 0 49.5n 0 50n 0 59.5n 0 60n 0 69.5n 0 70n 0 79.5n 0 80n 0 89.5n 0 90n 0.9 99.5n 0.9 100n 0.9 109.5n 0.9 110n 0.9 119.5n 0.9 120n 0.9 129.5n 0.9 130n 0 139.5n 0]
Vth66 (th66 0) vsource type=pwl wave=[0 0 9.5n 0 10n 0 19.5n 0 20n 0 29.5n 0 30n 0 39.5n 0 40n 0 49.5n 0 50n 0 59.5n 0 60n 0 69.5n 0 70n 0 79.5n 0 80n 0 89.5n 0 90n 0.9 99.5n 0.9 100n 0.9 109.5n 0.9 110n 0.9 119.5n 0.9 120n 0.9 129.5n 0.9 130n 0 139.5n 0]
Vth67 (th67 0) vsource type=pwl wave=[0 0 9.5n 0 10n 0 19.5n 0 20n 0 29.5n 0 30n 0 39.5n 0 40n 0 49.5n 0 50n 0 59.5n 0 60n 0 69.5n 0 70n 0 79.5n 0 80n 0 89.5n 0 90n 0.9 99.5n 0.9 100n 0.9 109.5n 0.9 110n 0.9 119.5n 0.9 120n 0.9 129.5n 0.9 130n 0 139.5n 0]
Vth68 (th68 0) vsource type=pwl wave=[0 0 9.5n 0 10n 0 19.5n 0 20n 0 29.5n 0 30n 0 39.5n 0 40n 0 49.5n 0 50n 0 59.5n 0 60n 0 69.5n 0 70n 0 79.5n 0 80n 0 89.5n 0 90n 0.9 99.5n 0.9 100n 0.9 109.5n 0.9 110n 0.9 119.5n 0.9 120n 0.9 129.5n 0.9 130n 0 139.5n 0]
Vth69 (th69 0) vsource type=pwl wave=[0 0 9.5n 0 10n 0 19.5n 0 20n 0 29.5n 0 30n 0 39.5n 0 40n 0 49.5n 0 50n 0 59.5n 0 60n 0 69.5n 0 70n 0 79.5n 0 80n 0 89.5n 0 90n 0.9 99.5n 0.9 100n 0.9 109.5n 0.9 110n 0.9 119.5n 0.9 120n 0.9 129.5n 0.9 130n 0 139.5n 0]
Vth70 (th70 0) vsource type=pwl wave=[0 0 9.5n 0 10n 0 19.5n 0 20n 0 29.5n 0 30n 0 39.5n 0 40n 0 49.5n 0 50n 0 59.5n 0 60n 0 69.5n 0 70n 0 79.5n 0 80n 0 89.5n 0 90n 0.9 99.5n 0.9 100n 0.9 109.5n 0.9 110n 0.9 119.5n 0.9 120n 0.9 129.5n 0.9 130n 0 139.5n 0]
Vth71 (th71 0) vsource type=pwl wave=[0 0 9.5n 0 10n 0 19.5n 0 20n 0 29.5n 0 30n 0 39.5n 0 40n 0 49.5n 0 50n 0 59.5n 0 60n 0 69.5n 0 70n 0 79.5n 0 80n 0 89.5n 0 90n 0.9 99.5n 0.9 100n 0.9 109.5n 0.9 110n 0.9 119.5n 0.9 120n 0.9 129.5n 0.9 130n 0 139.5n 0]
Vth72 (th72 0) vsource type=pwl wave=[0 0 9.5n 0 10n 0 19.5n 0 20n 0 29.5n 0 30n 0 39.5n 0 40n 0 49.5n 0 50n 0 59.5n 0 60n 0 69.5n 0 70n 0 79.5n 0 80n 0 89.5n 0 90n 0.9 99.5n 0.9 100n 0.9 109.5n 0.9 110n 0.9 119.5n 0.9 120n 0.9 129.5n 0.9 130n 0 139.5n 0]
Vth73 (th73 0) vsource type=pwl wave=[0 0 9.5n 0 10n 0 19.5n 0 20n 0 29.5n 0 30n 0 39.5n 0 40n 0 49.5n 0 50n 0 59.5n 0 60n 0 69.5n 0 70n 0 79.5n 0 80n 0 89.5n 0 90n 0.9 99.5n 0.9 100n 0.9 109.5n 0.9 110n 0.9 119.5n 0.9 120n 0.9 129.5n 0.9 130n 0 139.5n 0]
Vth74 (th74 0) vsource type=pwl wave=[0 0 9.5n 0 10n 0 19.5n 0 20n 0 29.5n 0 30n 0 39.5n 0 40n 0 49.5n 0 50n 0 59.5n 0 60n 0 69.5n 0 70n 0 79.5n 0 80n 0 89.5n 0 90n 0.9 99.5n 0.9 100n 0.9 109.5n 0.9 110n 0.9 119.5n 0.9 120n 0.9 129.5n 0.9 130n 0 139.5n 0]
Vth75 (th75 0) vsource type=pwl wave=[0 0 9.5n 0 10n 0 19.5n 0 20n 0 29.5n 0 30n 0 39.5n 0 40n 0 49.5n 0 50n 0 59.5n 0 60n 0 69.5n 0 70n 0 79.5n 0 80n 0 89.5n 0 90n 0.9 99.5n 0.9 100n 0.9 109.5n 0.9 110n 0.9 119.5n 0.9 120n 0.9 129.5n 0.9 130n 0 139.5n 0]
Vth76 (th76 0) vsource type=pwl wave=[0 0 9.5n 0 10n 0 19.5n 0 20n 0 29.5n 0 30n 0 39.5n 0 40n 0 49.5n 0 50n 0 59.5n 0 60n 0 69.5n 0 70n 0 79.5n 0 80n 0 89.5n 0 90n 0.9 99.5n 0.9 100n 0.9 109.5n 0.9 110n 0.9 119.5n 0.9 120n 0.9 129.5n 0.9 130n 0 139.5n 0]
Vth77 (th77 0) vsource type=pwl wave=[0 0 9.5n 0 10n 0 19.5n 0 20n 0 29.5n 0 30n 0 39.5n 0 40n 0 49.5n 0 50n 0 59.5n 0 60n 0 69.5n 0 70n 0 79.5n 0 80n 0 89.5n 0 90n 0.9 99.5n 0.9 100n 0.9 109.5n 0.9 110n 0.9 119.5n 0.9 120n 0.9 129.5n 0.9 130n 0 139.5n 0]
Vth78 (th78 0) vsource type=pwl wave=[0 0 9.5n 0 10n 0 19.5n 0 20n 0 29.5n 0 30n 0 39.5n 0 40n 0 49.5n 0 50n 0 59.5n 0 60n 0 69.5n 0 70n 0 79.5n 0 80n 0 89.5n 0 90n 0.9 99.5n 0.9 100n 0.9 109.5n 0.9 110n 0.9 119.5n 0.9 120n 0.9 129.5n 0.9 130n 0 139.5n 0]
Vth79 (th79 0) vsource type=pwl wave=[0 0 9.5n 0 10n 0 19.5n 0 20n 0 29.5n 0 30n 0 39.5n 0 40n 0 49.5n 0 50n 0 59.5n 0 60n 0 69.5n 0 70n 0 79.5n 0 80n 0 89.5n 0 90n 0.9 99.5n 0.9 100n 0.9 109.5n 0.9 110n 0.9 119.5n 0.9 120n 0.9 129.5n 0.9 130n 0 139.5n 0]
Vth80 (th80 0) vsource type=pwl wave=[0 0 9.5n 0 10n 0 19.5n 0 20n 0 29.5n 0 30n 0 39.5n 0 40n 0 49.5n 0 50n 0 59.5n 0 60n 0 69.5n 0 70n 0 79.5n 0 80n 0 89.5n 0 90n 0.9 99.5n 0.9 100n 0.9 109.5n 0.9 110n 0.9 119.5n 0.9 120n 0.9 129.5n 0.9 130n 0 139.5n 0]
Vth81 (th81 0) vsource type=pwl wave=[0 0 9.5n 0 10n 0 19.5n 0 20n 0 29.5n 0 30n 0 39.5n 0 40n 0 49.5n 0 50n 0 59.5n 0 60n 0 69.5n 0 70n 0 79.5n 0 80n 0 89.5n 0 90n 0.9 99.5n 0.9 100n 0.9 109.5n 0.9 110n 0.9 119.5n 0.9 120n 0.9 129.5n 0.9 130n 0 139.5n 0]
Vth82 (th82 0) vsource type=pwl wave=[0 0 9.5n 0 10n 0 19.5n 0 20n 0 29.5n 0 30n 0 39.5n 0 40n 0 49.5n 0 50n 0 59.5n 0 60n 0 69.5n 0 70n 0 79.5n 0 80n 0 89.5n 0 90n 0.9 99.5n 0.9 100n 0.9 109.5n 0.9 110n 0.9 119.5n 0.9 120n 0.9 129.5n 0.9 130n 0 139.5n 0]
Vth83 (th83 0) vsource type=pwl wave=[0 0 9.5n 0 10n 0 19.5n 0 20n 0 29.5n 0 30n 0 39.5n 0 40n 0 49.5n 0 50n 0 59.5n 0 60n 0 69.5n 0 70n 0 79.5n 0 80n 0 89.5n 0 90n 0.9 99.5n 0.9 100n 0.9 109.5n 0.9 110n 0.9 119.5n 0.9 120n 0.9 129.5n 0.9 130n 0 139.5n 0]
Vth84 (th84 0) vsource type=pwl wave=[0 0 9.5n 0 10n 0 19.5n 0 20n 0 29.5n 0 30n 0 39.5n 0 40n 0 49.5n 0 50n 0 59.5n 0 60n 0 69.5n 0 70n 0 79.5n 0 80n 0 89.5n 0 90n 0.9 99.5n 0.9 100n 0.9 109.5n 0.9 110n 0.9 119.5n 0.9 120n 0.9 129.5n 0.9 130n 0 139.5n 0]
Vth85 (th85 0) vsource type=pwl wave=[0 0 9.5n 0 10n 0 19.5n 0 20n 0 29.5n 0 30n 0 39.5n 0 40n 0 49.5n 0 50n 0 59.5n 0 60n 0 69.5n 0 70n 0 79.5n 0 80n 0 89.5n 0 90n 0.9 99.5n 0.9 100n 0.9 109.5n 0.9 110n 0.9 119.5n 0.9 120n 0.9 129.5n 0.9 130n 0 139.5n 0]
Vth86 (th86 0) vsource type=pwl wave=[0 0 9.5n 0 10n 0 19.5n 0 20n 0 29.5n 0 30n 0 39.5n 0 40n 0 49.5n 0 50n 0 59.5n 0 60n 0 69.5n 0 70n 0 79.5n 0 80n 0 89.5n 0 90n 0.9 99.5n 0.9 100n 0.9 109.5n 0.9 110n 0.9 119.5n 0.9 120n 0.9 129.5n 0.9 130n 0 139.5n 0]
Vth87 (th87 0) vsource type=pwl wave=[0 0 9.5n 0 10n 0 19.5n 0 20n 0 29.5n 0 30n 0 39.5n 0 40n 0 49.5n 0 50n 0 59.5n 0 60n 0 69.5n 0 70n 0 79.5n 0 80n 0 89.5n 0 90n 0.9 99.5n 0.9 100n 0.9 109.5n 0.9 110n 0.9 119.5n 0.9 120n 0.9 129.5n 0.9 130n 0 139.5n 0]
Vth88 (th88 0) vsource type=pwl wave=[0 0 9.5n 0 10n 0 19.5n 0 20n 0 29.5n 0 30n 0 39.5n 0 40n 0 49.5n 0 50n 0 59.5n 0 60n 0 69.5n 0 70n 0 79.5n 0 80n 0 89.5n 0 90n 0.9 99.5n 0.9 100n 0.9 109.5n 0.9 110n 0.9 119.5n 0.9 120n 0.9 129.5n 0.9 130n 0 139.5n 0]
Vth89 (th89 0) vsource type=pwl wave=[0 0 9.5n 0 10n 0 19.5n 0 20n 0 29.5n 0 30n 0 39.5n 0 40n 0 49.5n 0 50n 0 59.5n 0 60n 0 69.5n 0 70n 0 79.5n 0 80n 0 89.5n 0 90n 0.9 99.5n 0.9 100n 0.9 109.5n 0.9 110n 0.9 119.5n 0.9 120n 0.9 129.5n 0.9 130n 0 139.5n 0]
Vth90 (th90 0) vsource type=pwl wave=[0 0 9.5n 0 10n 0 19.5n 0 20n 0 29.5n 0 30n 0 39.5n 0 40n 0 49.5n 0 50n 0 59.5n 0 60n 0 69.5n 0 70n 0 79.5n 0 80n 0 89.5n 0 90n 0.9 99.5n 0.9 100n 0.9 109.5n 0.9 110n 0.9 119.5n 0.9 120n 0.9 129.5n 0.9 130n 0 139.5n 0]
Vth91 (th91 0) vsource type=pwl wave=[0 0 9.5n 0 10n 0 19.5n 0 20n 0 29.5n 0 30n 0 39.5n 0 40n 0 49.5n 0 50n 0 59.5n 0 60n 0 69.5n 0 70n 0 79.5n 0 80n 0 89.5n 0 90n 0.9 99.5n 0.9 100n 0.9 109.5n 0.9 110n 0.9 119.5n 0.9 120n 0.9 129.5n 0.9 130n 0 139.5n 0]
Vth92 (th92 0) vsource type=pwl wave=[0 0 9.5n 0 10n 0 19.5n 0 20n 0 29.5n 0 30n 0 39.5n 0 40n 0 49.5n 0 50n 0 59.5n 0 60n 0 69.5n 0 70n 0 79.5n 0 80n 0 89.5n 0 90n 0.9 99.5n 0.9 100n 0.9 109.5n 0.9 110n 0.9 119.5n 0.9 120n 0.9 129.5n 0.9 130n 0 139.5n 0]
Vth93 (th93 0) vsource type=pwl wave=[0 0 9.5n 0 10n 0 19.5n 0 20n 0 29.5n 0 30n 0 39.5n 0 40n 0 49.5n 0 50n 0 59.5n 0 60n 0 69.5n 0 70n 0 79.5n 0 80n 0 89.5n 0 90n 0.9 99.5n 0.9 100n 0.9 109.5n 0.9 110n 0.9 119.5n 0.9 120n 0.9 129.5n 0.9 130n 0 139.5n 0]
Vth94 (th94 0) vsource type=pwl wave=[0 0 9.5n 0 10n 0 19.5n 0 20n 0 29.5n 0 30n 0 39.5n 0 40n 0 49.5n 0 50n 0 59.5n 0 60n 0 69.5n 0 70n 0 79.5n 0 80n 0 89.5n 0 90n 0.9 99.5n 0.9 100n 0.9 109.5n 0.9 110n 0.9 119.5n 0.9 120n 0.9 129.5n 0.9 130n 0 139.5n 0]
Vth95 (th95 0) vsource type=pwl wave=[0 0 9.5n 0 10n 0 19.5n 0 20n 0 29.5n 0 30n 0 39.5n 0 40n 0 49.5n 0 50n 0 59.5n 0 60n 0 69.5n 0 70n 0 79.5n 0 80n 0 89.5n 0 90n 0.9 99.5n 0.9 100n 0.9 109.5n 0.9 110n 0.9 119.5n 0.9 120n 0.9 129.5n 0.9 130n 0 139.5n 0]
Vth96 (th96 0) vsource type=pwl wave=[0 0 9.5n 0 10n 0 19.5n 0 20n 0 29.5n 0 30n 0 39.5n 0 40n 0 49.5n 0 50n 0 59.5n 0 60n 0 69.5n 0 70n 0 79.5n 0 80n 0 89.5n 0 90n 0.9 99.5n 0.9 100n 0.9 109.5n 0.9 110n 0.9 119.5n 0.9 120n 0.9 129.5n 0.9 130n 0 139.5n 0]
Vth97 (th97 0) vsource type=pwl wave=[0 0 9.5n 0 10n 0 19.5n 0 20n 0 29.5n 0 30n 0 39.5n 0 40n 0 49.5n 0 50n 0 59.5n 0 60n 0 69.5n 0 70n 0 79.5n 0 80n 0 89.5n 0 90n 0.9 99.5n 0.9 100n 0.9 109.5n 0.9 110n 0.9 119.5n 0.9 120n 0.9 129.5n 0.9 130n 0 139.5n 0]
Vth98 (th98 0) vsource type=pwl wave=[0 0 9.5n 0 10n 0 19.5n 0 20n 0 29.5n 0 30n 0 39.5n 0 40n 0 49.5n 0 50n 0 59.5n 0 60n 0 69.5n 0 70n 0 79.5n 0 80n 0 89.5n 0 90n 0.9 99.5n 0.9 100n 0.9 109.5n 0.9 110n 0.9 119.5n 0.9 120n 0.9 129.5n 0.9 130n 0 139.5n 0]
Vth99 (th99 0) vsource type=pwl wave=[0 0 9.5n 0 10n 0 19.5n 0 20n 0 29.5n 0 30n 0 39.5n 0 40n 0 49.5n 0 50n 0 59.5n 0 60n 0 69.5n 0 70n 0 79.5n 0 80n 0 89.5n 0 90n 0.9 99.5n 0.9 100n 0.9 109.5n 0.9 110n 0.9 119.5n 0.9 120n 0.9 129.5n 0.9 130n 0 139.5n 0]
Vth100 (th100 0) vsource type=pwl wave=[0 0 9.5n 0 10n 0 19.5n 0 20n 0 29.5n 0 30n 0 39.5n 0 40n 0 49.5n 0 50n 0 59.5n 0 60n 0 69.5n 0 70n 0 79.5n 0 80n 0 89.5n 0 90n 0.9 99.5n 0.9 100n 0.9 109.5n 0.9 110n 0.9 119.5n 0.9 120n 0.9 129.5n 0.9 130n 0 139.5n 0]
Vth101 (th101 0) vsource type=pwl wave=[0 0 9.5n 0 10n 0 19.5n 0 20n 0 29.5n 0 30n 0 39.5n 0 40n 0 49.5n 0 50n 0 59.5n 0 60n 0 69.5n 0 70n 0 79.5n 0 80n 0 89.5n 0 90n 0.9 99.5n 0.9 100n 0.9 109.5n 0.9 110n 0.9 119.5n 0.9 120n 0.9 129.5n 0.9 130n 0 139.5n 0]
Vth102 (th102 0) vsource type=pwl wave=[0 0 9.5n 0 10n 0 19.5n 0 20n 0 29.5n 0 30n 0 39.5n 0 40n 0 49.5n 0 50n 0 59.5n 0 60n 0 69.5n 0 70n 0 79.5n 0 80n 0 89.5n 0 90n 0.9 99.5n 0.9 100n 0.9 109.5n 0.9 110n 0.9 119.5n 0.9 120n 0.9 129.5n 0.9 130n 0 139.5n 0]
Vth103 (th103 0) vsource type=pwl wave=[0 0 9.5n 0 10n 0 19.5n 0 20n 0 29.5n 0 30n 0 39.5n 0 40n 0 49.5n 0 50n 0 59.5n 0 60n 0 69.5n 0 70n 0 79.5n 0 80n 0 89.5n 0 90n 0.9 99.5n 0.9 100n 0.9 109.5n 0.9 110n 0.9 119.5n 0.9 120n 0.9 129.5n 0.9 130n 0 139.5n 0]
Vth104 (th104 0) vsource type=pwl wave=[0 0 9.5n 0 10n 0 19.5n 0 20n 0 29.5n 0 30n 0 39.5n 0 40n 0 49.5n 0 50n 0 59.5n 0 60n 0 69.5n 0 70n 0 79.5n 0 80n 0 89.5n 0 90n 0.9 99.5n 0.9 100n 0.9 109.5n 0.9 110n 0.9 119.5n 0.9 120n 0.9 129.5n 0.9 130n 0 139.5n 0]
Vth105 (th105 0) vsource type=pwl wave=[0 0 9.5n 0 10n 0 19.5n 0 20n 0 29.5n 0 30n 0 39.5n 0 40n 0 49.5n 0 50n 0 59.5n 0 60n 0 69.5n 0 70n 0 79.5n 0 80n 0 89.5n 0 90n 0.9 99.5n 0.9 100n 0.9 109.5n 0.9 110n 0.9 119.5n 0.9 120n 0.9 129.5n 0.9 130n 0 139.5n 0]
Vth106 (th106 0) vsource type=pwl wave=[0 0 9.5n 0 10n 0 19.5n 0 20n 0 29.5n 0 30n 0 39.5n 0 40n 0 49.5n 0 50n 0 59.5n 0 60n 0 69.5n 0 70n 0 79.5n 0 80n 0 89.5n 0 90n 0.9 99.5n 0.9 100n 0.9 109.5n 0.9 110n 0.9 119.5n 0.9 120n 0.9 129.5n 0.9 130n 0 139.5n 0]
Vth107 (th107 0) vsource type=pwl wave=[0 0 9.5n 0 10n 0 19.5n 0 20n 0 29.5n 0 30n 0 39.5n 0 40n 0 49.5n 0 50n 0 59.5n 0 60n 0 69.5n 0 70n 0 79.5n 0 80n 0 89.5n 0 90n 0.9 99.5n 0.9 100n 0.9 109.5n 0.9 110n 0.9 119.5n 0.9 120n 0.9 129.5n 0.9 130n 0 139.5n 0]
Vth108 (th108 0) vsource type=pwl wave=[0 0 9.5n 0 10n 0 19.5n 0 20n 0 29.5n 0 30n 0 39.5n 0 40n 0 49.5n 0 50n 0 59.5n 0 60n 0 69.5n 0 70n 0 79.5n 0 80n 0 89.5n 0 90n 0.9 99.5n 0.9 100n 0.9 109.5n 0.9 110n 0.9 119.5n 0.9 120n 0.9 129.5n 0.9 130n 0 139.5n 0]
Vth109 (th109 0) vsource type=pwl wave=[0 0 9.5n 0 10n 0 19.5n 0 20n 0 29.5n 0 30n 0 39.5n 0 40n 0 49.5n 0 50n 0 59.5n 0 60n 0 69.5n 0 70n 0 79.5n 0 80n 0 89.5n 0 90n 0.9 99.5n 0.9 100n 0.9 109.5n 0.9 110n 0.9 119.5n 0.9 120n 0.9 129.5n 0.9 130n 0 139.5n 0]
Vth110 (th110 0) vsource type=pwl wave=[0 0 9.5n 0 10n 0 19.5n 0 20n 0 29.5n 0 30n 0 39.5n 0 40n 0 49.5n 0 50n 0 59.5n 0 60n 0 69.5n 0 70n 0 79.5n 0 80n 0 89.5n 0 90n 0.9 99.5n 0.9 100n 0.9 109.5n 0.9 110n 0.9 119.5n 0.9 120n 0.9 129.5n 0.9 130n 0 139.5n 0]
Vth111 (th111 0) vsource type=pwl wave=[0 0 9.5n 0 10n 0 19.5n 0 20n 0 29.5n 0 30n 0 39.5n 0 40n 0 49.5n 0 50n 0 59.5n 0 60n 0 69.5n 0 70n 0 79.5n 0 80n 0 89.5n 0 90n 0.9 99.5n 0.9 100n 0.9 109.5n 0.9 110n 0.9 119.5n 0.9 120n 0.9 129.5n 0.9 130n 0 139.5n 0]
Vth112 (th112 0) vsource type=pwl wave=[0 0 9.5n 0 10n 0 19.5n 0 20n 0 29.5n 0 30n 0 39.5n 0 40n 0 49.5n 0 50n 0 59.5n 0 60n 0 69.5n 0 70n 0 79.5n 0 80n 0 89.5n 0 90n 0.9 99.5n 0.9 100n 0.9 109.5n 0.9 110n 0.9 119.5n 0.9 120n 0.9 129.5n 0.9 130n 0 139.5n 0]
Vth113 (th113 0) vsource type=pwl wave=[0 0 9.5n 0 10n 0 19.5n 0 20n 0 29.5n 0 30n 0 39.5n 0 40n 0 49.5n 0 50n 0 59.5n 0 60n 0 69.5n 0 70n 0 79.5n 0 80n 0 89.5n 0 90n 0.9 99.5n 0.9 100n 0.9 109.5n 0.9 110n 0.9 119.5n 0.9 120n 0.9 129.5n 0.9 130n 0 139.5n 0]