simulator lang=spectre
global 0

ahdl_include "reset_sync_active_high.va"

V_clk (clk 0) vsource type=pulse val0=0 val1=0.9 period=1n delay=100p rise=20p fall=20p width=450p
V_rst (rst 0) vsource type=pulse val0=0.9 val1=0 period=20n delay=1n rise=50p fall=50p width=18n

XDUT (clk rst sync_rst) reset_sync_active_high

tran tran stop=8n maxstep=100p
save clk rst sync_rst
