simulator lang=spectre
global 0
ahdl_include "../solution/packed_logic_bus_slice.vams"

Va0 (a0 0) vsource dc=0
Va1 (a1 0) vsource dc=1
Va2 (a2 0) vsource dc=0
Va3 (a3 0) vsource dc=1
Va4 (a4 0) vsource dc=0
Va5 (a5 0) vsource dc=0
Va6 (a6 0) vsource dc=1
Va7 (a7 0) vsource dc=1
Xdut ([a7 a6 a5 a4 a3 a2 a1 a0] [y3 y2 y1 y0]) packed_logic_bus_slice

tran tran stop=80n
save a7 a6 a1 a0 y3 y2 y1 y0
