simulator lang=spectre
global 0

ahdl_include "analog_node_alias_initial.va"

Vin (vin 0) vsource type=pwl wave=[0 0.00 20n 0.00 21n 0.20 60n 0.20 61n 0.50 100n 0.50]

XDUT (out) analog_node_alias_initial

tran tran stop=100n
save vin out
